x1386
     RDKit          3D

 20 21  0  0  0  0  0  0  0  0999 V2000
    6.8880   -2.4160   20.8430 N   0  0  0  0  0  0  0  0  0  0  0  0
    7.1630   -2.4650   18.3915 C   0  0  0  0  0  0  0  0  0  0  0  0
    5.7685   -3.9330   19.6355 O   0  0  0  0  0  0  0  0  0  0  0  0
    6.5395   -2.9835   19.6715 C   0  0  0  0  0  0  0  0  0  0  0  0
    8.6625   -2.1485   23.0640 N   0  0  0  0  0  0  0  0  0  0  0  0
    6.5460   -2.9870   22.1355 C   0  0  0  0  0  0  0  0  0  0  0  0
    7.8090   -3.3240   22.8860 C   0  0  0  0  0  0  0  0  0  0  0  0
   10.3650   -2.2527   23.4553 C   0  0  0  0  0  0  0  0  0  0  0  0
   10.7813   -1.3833   23.8163 C   0  0  0  0  0  0  0  0  0  0  0  0
   12.1543   -1.1717   22.7820 C   0  0  0  0  0  0  0  0  0  0  0  0
   12.7143   -0.0190   23.1930 C   0  0  0  0  0  0  0  0  0  0  0  0
   10.8613   -0.2303   24.7397 C   0  0  0  0  0  0  0  0  0  0  0  0
    8.9540   -1.5640   21.7575 C   0  0  0  0  0  0  0  0  0  0  0  0
    7.6915   -1.2155   21.0145 C   0  0  0  0  0  0  0  0  0  0  0  0
   12.0117    0.6897   24.2270 S   0  0  0  0  0  0  0  0  0  0  0  0
    8.3220    0.0320   27.4420 C   0  0  0  0  0  0  0  0  0  0  0  0
    8.8840   -0.5190   26.1510 C   0  0  0  0  0  0  0  0  0  0  0  0
   10.0180    0.2860   25.7380 N   0  0  0  0  0  0  0  0  0  0  0  0
   13.3210   -1.4150   21.4190 C   0  0  0  0  0  0  0  0  0  0  0  0
   14.0050   -1.7200   20.5660 N   0  0  0  0  0  0  0  0  0  0  0  0
  1  4  1  0
  1  6  1  0
  1 14  1  0
  4  2  1  0
  4  3  2  0
  6  7  1  0
 14 13  1  0
  5  7  1  0
  5  8  1  0
  5 13  1  0
  8  9  1  0
  9 10  4  0
  9 12  4  0
 10 11  4  0
 12 15  4  0
 11 15  4  0
 16 17  1  0
 17 18  1  0
 18 12  1  0
 19 20  3  0
 19 10  1  0
M  END
