LIG
     RDKit          3D

 35 36  0  0  0  0  0  0  0  0999 V2000
    8.8058   -3.2391   18.2247 R   0  0  0  0  0  1  0  0  0  0  0  0
    8.5312   -2.4523   18.2157 C   0  0  0  0  0  0  0  0  0  0  0  0
    7.1630   -2.4650   18.3915 C   0  0  0  0  0  0  0  0  0  0  0  0
    6.5395   -2.9835   19.6715 C   0  0  0  0  0  0  0  0  0  0  0  0
    5.7685   -3.9330   19.6355 O   0  0  0  0  0  0  0  0  0  0  0  0
    6.8880   -2.4160   20.8430 N   0  0  0  0  0  0  0  0  0  0  0  0
    6.5460   -2.9870   22.1355 C   0  0  0  0  0  0  0  0  0  0  0  0
    7.8090   -3.3240   22.8860 C   0  0  0  0  0  0  0  0  0  0  0  0
    8.6625   -2.1485   23.0640 N   0  0  0  0  0  0  0  0  0  0  0  0
   10.3650   -2.2527   23.4553 C   0  0  0  0  0  0  0  0  0  0  0  0
   10.7813   -1.3833   23.8163 C   0  0  0  0  0  0  0  0  0  0  0  0
   10.8613   -0.2303   24.7397 S   0  0  0  0  0  0  0  0  0  0  0  0
   10.0180    0.2860   25.7380 C   0  0  0  0  0  0  0  0  0  0  0  0
   12.7143   -0.0190   23.1930 C   0  0  0  0  0  0  0  0  0  0  0  0
   12.1543   -1.1717   22.7820 C   0  0  0  0  0  0  0  0  0  0  0  0
   13.3210   -1.4150   21.4190 C   0  0  0  0  0  0  0  0  0  0  0  0
   14.0050   -1.7200   20.5660 N   0  0  0  0  0  0  0  0  0  0  0  0
    8.9540   -1.5640   21.7575 C   0  0  0  0  0  0  0  0  0  0  0  0
    7.6915   -1.2155   21.0145 C   0  0  0  0  0  0  0  0  0  0  0  0
    8.7581   -1.9655   17.2183 H   0  0  0  0  0  0  0  0  0  0  0  0
    9.0057   -1.8004   18.9829 H   0  0  0  0  0  0  0  0  0  0  0  0
    6.6999   -1.4009   18.1997 H   0  0  0  0  0  0  0  0  0  0  0  0
    7.7148   -1.6081   18.6392 H   0  0  0  0  0  0  0  0  0  0  0  0
    5.9981   -2.1903   22.6730 H   0  0  0  0  0  0  0  0  0  0  0  0
    5.9061   -3.8610   22.0681 H   0  0  0  0  0  0  0  0  0  0  0  0
    8.4248   -4.0361   22.1982 H   0  0  0  0  0  0  0  0  0  0  0  0
    7.5728   -3.8739   23.8178 H   0  0  0  0  0  0  0  0  0  0  0  0
   10.1940   -3.2042   24.2158 H   0  0  0  0  0  0  0  0  0  0  0  0
   10.7471   -2.7629   22.5236 H   0  0  0  0  0  0  0  0  0  0  0  0
    8.8840   -0.5190   26.1510 H   0  0  0  0  0  0  0  0  0  0  0  0
   12.0117    0.6897   24.2270 H   0  0  0  0  0  0  0  0  0  0  0  0
    9.6187   -0.6722   21.8266 H   0  0  0  0  0  0  0  0  0  0  0  0
    9.4688   -2.2900   21.0908 H   0  0  0  0  0  0  0  0  0  0  0  0
    7.1191   -0.4467   21.6204 H   0  0  0  0  0  0  0  0  0  0  0  0
    7.9831   -0.7130   20.0816 H   0  0  0  0  0  0  0  0  0  0  0  0
  1  2  1  0
  2  3  1  0
  3  4  1  0
  4  5  2  0
  4  6  1  0
  6  7  1  0
  7  8  1  0
  8  9  1  0
  9 10  1  0
 10 11  1  0
 11 12  4  0
 12 13  4  0
 13 14  4  0
 14 15  4  0
 15 16  1  0
 16 17  3  0
  9 18  1  0
 18 19  1  0
 19  6  1  0
 15 11  4  0
  2 20  1  0
  2 21  1  0
  3 22  1  0
  3 23  1  0
  7 24  1  0
  7 25  1  0
  8 26  1  0
  8 27  1  0
 10 28  1  0
 10 29  1  0
 13 30  1  0
 14 31  1  0
 18 32  1  0
 18 33  1  0
 19 34  1  0
 19 35  1  0
M  END
