LIG
     RDKit          3D

 46 49  0  0  0  0  0  0  0  0999 V2000
    8.0390   -4.3510   26.1860 C   0  0  0  0  0  0  0  0  0  0  0  0
    8.0090   -3.5280   24.6940 N   0  0  0  0  0  0  0  0  0  0  0  0
    6.7734   -3.2682   24.1906 C   0  0  0  0  0  0  0  0  0  0  0  0
    6.2896   -4.4530   23.4344 C   0  0  0  0  0  0  0  0  0  0  0  0
    5.5287   -5.4226   23.9098 N   0  0  0  0  0  0  0  0  0  0  0  0
    5.3235   -6.3428   22.9093 N   0  0  0  0  0  0  0  0  0  0  0  0
    5.9583   -5.9202   21.8390 C   0  0  0  0  0  0  0  0  0  0  0  0
    6.1014   -6.4582   20.5306 C   0  0  0  0  0  0  0  0  0  0  0  0
    6.8327   -5.7932   19.6147 C   0  0  0  0  0  0  0  0  0  0  0  0
    7.4816   -4.5303   19.9329 C   0  0  0  0  0  0  0  0  0  0  0  0
    7.3450   -4.0189   21.1687 C   0  0  0  0  0  0  0  0  0  0  0  0
    6.5885   -4.7132   22.1136 N   0  0  0  0  0  0  0  0  0  0  0  0
    9.2640   -3.0210   24.2000 C   0  0  0  0  0  0  0  0  0  0  0  0
   10.2915   -3.5733   24.3616 O   0  0  0  0  0  0  0  0  0  0  0  0
    9.1610   -1.7420   23.3800 N   0  0  0  0  0  0  0  0  0  0  0  0
    8.2738   -1.5619   22.4345 C   0  0  0  0  0  0  0  0  0  0  0  0
    8.7902   -1.8136   21.0391 C   0  0  0  0  0  0  0  0  0  0  0  0
    9.1207   -0.8813   20.0718 C   0  0  0  0  0  0  0  0  0  0  0  0
    9.5765   -1.4835   18.8639 C   0  0  0  0  0  0  0  0  0  0  0  0
    9.5675   -2.8573   18.9396 C   0  0  0  0  0  0  0  0  0  0  0  0
    9.0110   -3.4126   20.4564 S   0  0  0  0  0  0  0  0  0  0  0  0
   10.5550   -1.1370   23.4290 C   0  0  0  0  0  0  0  0  0  0  0  0
   10.8590   -0.0900   24.2910 C   0  0  0  0  0  0  0  0  0  0  0  0
   12.1480    0.4150   24.3170 C   0  0  0  0  0  0  0  0  0  0  0  0
   13.1300   -0.1380   23.5120 C   0  0  0  0  0  0  0  0  0  0  0  0
   14.8914    0.5452   23.5672 Br  0  0  0  0  0  0  0  0  0  0  0  0
   12.8240   -1.1930   22.6610 C   0  0  0  0  0  0  0  0  0  0  0  0
   11.5360   -1.6880   22.6290 C   0  0  0  0  0  0  0  0  0  0  0  0
    6.3780   -4.9440   26.6060 H   0  0  0  0  0  0  0  0  0  0  0  0
    9.0270   -5.4340   26.2040 H   0  0  0  0  0  0  0  0  0  0  0  0
    8.5820   -3.5030   27.2340 H   0  0  0  0  0  0  0  0  0  0  0  0
    6.0646   -3.0111   24.9861 H   0  0  0  0  0  0  0  0  0  0  0  0
    6.8283   -2.3930   23.5358 H   0  0  0  0  0  0  0  0  0  0  0  0
    5.6150   -7.3990   20.2989 H   0  0  0  0  0  0  0  0  0  0  0  0
    6.9549   -6.1870   18.6099 H   0  0  0  0  0  0  0  0  0  0  0  0
    8.0640   -4.0276   19.1674 H   0  0  0  0  0  0  0  0  0  0  0  0
    7.8074   -3.0856   21.4643 H   0  0  0  0  0  0  0  0  0  0  0  0
    7.3850   -2.1796   22.6153 H   0  0  0  0  0  0  0  0  0  0  0  0
    7.9262   -0.5273   22.5329 H   0  0  0  0  0  0  0  0  0  0  0  0
    9.0489    0.1887   20.2247 H   0  0  0  0  0  0  0  0  0  0  0  0
    9.8944   -0.9369   17.9845 H   0  0  0  0  0  0  0  0  0  0  0  0
    9.8590   -3.5648   18.1757 H   0  0  0  0  0  0  0  0  0  0  0  0
   10.1262    0.3229   24.9676 H   0  0  0  0  0  0  0  0  0  0  0  0
   12.3866    1.2503   24.9809 H   0  0  0  0  0  0  0  0  0  0  0  0
   13.5885   -1.6258   22.0182 H   0  0  0  0  0  0  0  0  0  0  0  0
   11.3148   -2.4995   21.9394 H   0  0  0  0  0  0  0  0  0  0  0  0
  1  2  1  0
  2  3  1  0
  3  4  1  0
  4  5  4  0
  5  6  4  0
  6  7  4  0
  7  8  4  0
  8  9  4  0
  9 10  4  0
 10 11  4  0
 11 12  4  0
  2 13  1  0
 13 14  2  0
 13 15  1  0
 15 16  1  0
 16 17  1  0
 17 18  4  0
 18 19  4  0
 19 20  4  0
 20 21  4  0
 15 22  1  0
 22 23  4  0
 23 24  4  0
 24 25  4  0
 25 26  1  0
 25 27  4  0
 27 28  4  0
 12  4  4  0
 21 17  4  0
 28 22  4  0
 12  7  4  0
  1 29  1  0
  1 30  1  0
  1 31  1  0
  3 32  1  0
  3 33  1  0
  8 34  1  0
  9 35  1  0
 10 36  1  0
 11 37  1  0
 16 38  1  0
 16 39  1  0
 18 40  1  0
 19 41  1  0
 20 42  1  0
 23 43  1  0
 24 44  1  0
 27 45  1  0
 28 46  1  0
M  END
