
     RDKit          3D

 46 49  0  0  0  0  0  0  0  0999 V2000
    8.0050   -4.2310   26.0710 C   0  0  0  0  0  0  0  0  0  0  0  0
    7.5270   -3.2810   25.0430 N   0  0  0  0  0  0  0  0  0  0  0  0
    6.4680   -2.3480   25.4670 C   0  0  0  0  0  0  0  0  0  0  0  0
    5.0930   -2.9440   25.5260 C   0  0  0  0  0  0  0  0  0  0  0  0
    4.1360   -2.5350   26.3500 N   0  0  0  0  0  0  0  0  0  0  0  0
    3.0400   -3.2630   26.1530 N   0  0  0  0  0  0  0  0  0  0  0  0
    3.2920   -4.1400   25.2070 C   0  0  0  0  0  0  0  0  0  0  0  0
    2.4970   -5.1380   24.6170 C   0  0  0  0  0  0  0  0  0  0  0  0
    3.0190   -5.9510   23.6080 C   0  0  0  0  0  0  0  0  0  0  0  0
    4.3340   -5.7800   23.1770 C   0  0  0  0  0  0  0  0  0  0  0  0
    5.1370   -4.7870   23.7560 C   0  0  0  0  0  0  0  0  0  0  0  0
    4.5980   -3.9860   24.7620 N   0  0  0  0  0  0  0  0  0  0  0  0
    7.9280   -3.2310   23.7020 C   0  0  0  0  0  0  0  0  0  0  0  0
    8.0160   -4.2750   23.0510 O   0  0  0  0  0  0  0  0  0  0  0  0
    8.2240   -1.9630   23.1430 N   0  0  0  0  0  0  0  0  0  0  0  0
    7.1310   -1.0570   22.7190 C   0  0  0  0  0  0  0  0  0  0  0  0
    7.2670   -0.7950   21.3620 C   0  0  0  0  0  0  0  0  0  0  0  0
    6.2490   -0.9190   20.4280 C   0  0  0  0  0  0  0  0  0  0  0  0
    6.6120   -0.6110   19.1340 C   0  0  0  0  0  0  0  0  0  0  0  0
    7.9420   -0.2420   19.0780 C   0  0  0  0  0  0  0  0  0  0  0  0
    8.7090   -0.2770   20.6130 S   0  0  0  0  0  0  0  0  0  0  0  0
    9.5530   -1.5430   23.3430 C   0  0  0  0  0  0  0  0  0  0  0  0
    9.8800   -0.6340   24.4920 C   0  0  0  0  0  0  0  0  0  0  0  0
   11.1720   -0.3110   24.6790 C   0  0  0  0  0  0  0  0  0  0  0  0
   12.1060   -0.8290   23.8190 C   0  0  0  0  0  0  0  0  0  0  0  0
   13.7830   -0.4490   24.1680 Br  0  0  0  0  0  0  0  0  0  0  0  0
   11.8560   -1.6310   22.7360 C   0  0  0  0  0  0  0  0  0  0  0  0
   10.5700   -1.9820   22.5030 C   0  0  0  0  0  0  0  0  0  0  0  0
    7.1340   -4.7720   26.4820 H   0  0  0  0  0  0  0  0  0  0  0  0
    8.7300   -4.9700   25.7070 H   0  0  0  0  0  0  0  0  0  0  0  0
    8.4790   -3.6850   26.8970 H   0  0  0  0  0  0  0  0  0  0  0  0
    6.7540   -1.9330   26.4410 H   0  0  0  0  0  0  0  0  0  0  0  0
    6.4520   -1.5010   24.7780 H   0  0  0  0  0  0  0  0  0  0  0  0
    1.4770   -5.2540   24.9660 H   0  0  0  0  0  0  0  0  0  0  0  0
    2.4180   -6.7290   23.1390 H   0  0  0  0  0  0  0  0  0  0  0  0
    4.7110   -6.4280   22.3920 H   0  0  0  0  0  0  0  0  0  0  0  0
    6.1600   -4.6170   23.4560 H   0  0  0  0  0  0  0  0  0  0  0  0
    6.1850   -1.5860   22.8800 H   0  0  0  0  0  0  0  0  0  0  0  0
    7.0460   -0.2050   23.3840 H   0  0  0  0  0  0  0  0  0  0  0  0
    5.2610   -1.2320   20.7030 H   0  0  0  0  0  0  0  0  0  0  0  0
    5.9560   -0.6520   18.2720 H   0  0  0  0  0  0  0  0  0  0  0  0
    8.5080    0.0480   18.2090 H   0  0  0  0  0  0  0  0  0  0  0  0
    9.1440   -0.2390   25.1820 H   0  0  0  0  0  0  0  0  0  0  0  0
   11.4510    0.3310   25.5040 H   0  0  0  0  0  0  0  0  0  0  0  0
   12.6530   -1.9930   22.0880 H   0  0  0  0  0  0  0  0  0  0  0  0
   10.4000   -2.6200   21.6540 H   0  0  0  0  0  0  0  0  0  0  0  0
  1  2  1  0
  2  3  1  0
  3  4  1  0
  4  5  2  0
  5  6  1  0
  6  7  2  0
  7  8  1  0
  8  9  2  0
  9 10  1  0
 10 11  2  0
  4 12  1  0
  7 12  1  0
 11 12  1  0
  2 13  1  0
 13 14  2  0
 13 15  1  0
 15 16  1  0
 16 17  1  0
 17 18  2  0
 18 19  1  0
 19 20  2  0
 17 21  1  0
 20 21  1  0
 15 22  1  0
 22 23  2  0
 23 24  1  0
 24 25  2  0
 25 26  1  0
 25 27  1  0
 22 28  1  0
 27 28  2  0
  1 29  1  0
  1 30  1  0
  1 31  1  0
  3 32  1  0
  3 33  1  0
  8 34  1  0
  9 35  1  0
 10 36  1  0
 11 37  1  0
 16 38  1  0
 16 39  1  0
 18 40  1  0
 19 41  1  0
 20 42  1  0
 23 43  1  0
 24 44  1  0
 27 45  1  0
 28 46  1  0
M  END
