LIG
     RDKit          3D

 46 49  0  0  0  0  0  0  0  0999 V2000
   -0.0113    2.0506    1.6590 C   0  0  0  0  0  0  0  0  0  0  0  0
    0.2101    0.6549    1.2948 N   0  0  0  0  0  0  0  0  0  0  0  0
    1.3143   -0.0414    1.9596 C   0  0  0  0  0  0  0  0  0  0  0  0
    2.6386    0.5286    1.5929 C   0  0  0  0  0  0  0  0  0  0  0  0
    3.2235    1.5465    2.2013 N   0  0  0  0  0  0  0  0  0  0  0  0
    4.4529    1.7477    1.6270 N   0  0  0  0  0  0  0  0  0  0  0  0
    4.5997    0.8562    0.6741 C   0  0  0  0  0  0  0  0  0  0  0  0
    5.6765    0.5800   -0.2150 C   0  0  0  0  0  0  0  0  0  0  0  0
    5.5929   -0.4700   -1.0555 C   0  0  0  0  0  0  0  0  0  0  0  0
    4.4155   -1.3224   -1.0772 C   0  0  0  0  0  0  0  0  0  0  0  0
    3.3838   -1.0457   -0.2561 C   0  0  0  0  0  0  0  0  0  0  0  0
    3.4769    0.0400    0.6143 N   0  0  0  0  0  0  0  0  0  0  0  0
   -0.3985    0.0297    0.2132 C   0  0  0  0  0  0  0  0  0  0  0  0
    0.1551   -0.9077   -0.3639 O   0  0  0  0  0  0  0  0  0  0  0  0
   -1.6793    0.4847   -0.1302 N   0  0  0  0  0  0  0  0  0  0  0  0
   -2.6860    0.4806    0.9489 C   0  0  0  0  0  0  0  0  0  0  0  0
   -2.7637   -0.8729    1.6111 C   0  0  0  0  0  0  0  0  0  0  0  0
   -3.0701   -2.0967    1.0465 C   0  0  0  0  0  0  0  0  0  0  0  0
   -3.0059   -3.1583    1.9872 C   0  0  0  0  0  0  0  0  0  0  0  0
   -2.6574   -2.7136    3.2425 C   0  0  0  0  0  0  0  0  0  0  0  0
   -2.4466   -1.0214    3.2895 S   0  0  0  0  0  0  0  0  0  0  0  0
   -2.0704    0.6223   -1.5169 C   0  0  0  0  0  0  0  0  0  0  0  0
   -1.1295    0.4531   -2.5485 C   0  0  0  0  0  0  0  0  0  0  0  0
   -1.4637    0.6194   -3.9006 C   0  0  0  0  0  0  0  0  0  0  0  0
   -2.7528    0.9832   -4.2525 C   0  0  0  0  0  0  0  0  0  0  0  0
   -3.2116    1.2211   -6.0665 Br  0  0  0  0  0  0  0  0  0  0  0  0
   -3.7057    1.1890   -3.2607 C   0  0  0  0  0  0  0  0  0  0  0  0
   -3.3641    1.0145   -1.9091 C   0  0  0  0  0  0  0  0  0  0  0  0
   -0.3033    2.0956    2.7099 H   0  0  0  0  0  0  0  0  0  0  0  0
   -0.7787    2.5255    1.0392 H   0  0  0  0  0  0  0  0  0  0  0  0
    0.9090    2.6234    1.5070 H   0  0  0  0  0  0  0  0  0  0  0  0
    1.2728   -1.1186    1.7586 H   0  0  0  0  0  0  0  0  0  0  0  0
    1.1563    0.0736    3.0381 H   0  0  0  0  0  0  0  0  0  0  0  0
    6.5469    1.2243   -0.1900 H   0  0  0  0  0  0  0  0  0  0  0  0
    6.4053   -0.7016   -1.7387 H   0  0  0  0  0  0  0  0  0  0  0  0
    4.3944   -2.1654   -1.7587 H   0  0  0  0  0  0  0  0  0  0  0  0
    2.4862   -1.6475   -0.2288 H   0  0  0  0  0  0  0  0  0  0  0  0
   -2.4385    1.2615    1.6764 H   0  0  0  0  0  0  0  0  0  0  0  0
   -3.6924    0.7232    0.6049 H   0  0  0  0  0  0  0  0  0  0  0  0
   -3.3023   -2.2273   -0.0016 H   0  0  0  0  0  0  0  0  0  0  0  0
   -3.1861   -4.1991    1.7540 H   0  0  0  0  0  0  0  0  0  0  0  0
   -2.5174   -3.2991    4.1389 H   0  0  0  0  0  0  0  0  0  0  0  0
   -0.1015    0.1781   -2.3397 H   0  0  0  0  0  0  0  0  0  0  0  0
   -0.7005    0.4671   -4.6595 H   0  0  0  0  0  0  0  0  0  0  0  0
   -4.7174    1.5038   -3.5188 H   0  0  0  0  0  0  0  0  0  0  0  0
   -4.1560    1.2304   -1.2000 H   0  0  0  0  0  0  0  0  0  0  0  0
  1  2  1  0
  2  3  1  0
  3  4  1  0
  4  5  2  0
  5  6  1  0
  6  7  2  0
  7  8  1  0
  8  9  2  0
  9 10  1  0
 10 11  2  0
 11 12  1  0
  2 13  1  0
 13 14  2  0
 13 15  1  0
 15 16  1  0
 16 17  1  0
 17 18  2  0
 18 19  1  0
 19 20  2  0
 20 21  1  0
 15 22  1  0
 22 23  2  0
 23 24  1  0
 24 25  2  0
 25 26  1  0
 25 27  1  0
 27 28  2  0
 12  4  1  0
 21 17  1  0
 28 22  1  0
 12  7  1  0
  1 29  1  0
  1 30  1  0
  1 31  1  0
  3 32  1  0
  3 33  1  0
  8 34  1  0
  9 35  1  0
 10 36  1  0
 11 37  1  0
 16 38  1  0
 16 39  1  0
 18 40  1  0
 19 41  1  0
 20 42  1  0
 23 43  1  0
 24 44  1  0
 27 45  1  0
 28 46  1  0
M  END
