LIG
     RDKit          3D

 37 38  0  0  0  0  0  0  0  0999 V2000
    8.1174   -3.4110   18.5965 R   0  0  0  0  0  1  0  0  0  0  0  0
    8.0387   -2.8798   19.2550 C   0  0  0  0  0  0  0  0  0  0  0  0
    7.7520   -3.6130   20.3900 C   0  0  0  0  0  0  0  0  0  0  0  0
    6.4860   -4.4020   20.5980 C   0  0  0  0  0  0  0  0  0  0  0  0
    5.6390   -4.4440   19.7150 O   0  0  0  0  0  0  0  0  0  0  0  0
    6.3490   -5.0580   21.7740 N   0  0  0  0  0  0  0  0  0  0  0  0
    7.1990   -4.8460   22.9470 C   0  0  0  0  0  0  0  0  0  0  0  0
    6.3630   -4.4520   24.1360 C   0  0  0  0  0  0  0  0  0  0  0  0
    5.3270   -5.4730   24.3670 N   0  0  0  0  0  0  0  0  0  0  0  0
    4.5810   -5.4590   25.8260 S   0  0  0  0  0  6  0  0  0  0  0  0
    3.9020   -6.7110   25.9450 O   0  0  0  0  0  0  0  0  0  0  0  0
    5.5710   -5.0920   26.7890 O   0  0  0  0  0  0  0  0  0  0  0  0
    3.3580   -4.1840   25.7860 C   0  0  0  0  0  0  0  0  0  0  0  0
    2.0160   -4.5200   25.6990 C   0  0  0  0  0  0  0  0  0  0  0  0
    1.0530   -3.5220   25.6690 C   0  0  0  0  0  0  0  0  0  0  0  0
    1.4200   -2.1920   25.7230 C   0  0  0  0  0  0  0  0  0  0  0  0
    0.4795   -1.1974   25.6880 F   0  0  0  0  0  0  0  0  0  0  0  0
    2.7600   -1.9000   25.8130 C   0  0  0  0  0  0  0  0  0  0  0  0
    3.1340   -0.6030   25.8670 F   0  0  0  0  0  0  0  0  0  0  0  0
    3.7480   -2.8580   25.8450 C   0  0  0  0  0  0  0  0  0  0  0  0
    4.4680   -5.6630   23.1870 C   0  0  0  0  0  0  0  0  0  0  0  0
    5.3280   -6.0740   22.0210 C   0  0  0  0  0  0  0  0  0  0  0  0
    7.1484   -2.2398   19.0208 H   0  0  0  0  0  0  0  0  0  0  0  0
    8.9512   -2.2533   19.3445 H   0  0  0  0  0  0  0  0  0  0  0  0
    8.5472   -4.3125   20.0256 H   0  0  0  0  0  0  0  0  0  0  0  0
    8.0929   -3.6300   19.3561 H   0  0  0  0  0  0  0  0  0  0  0  0
    7.9175   -4.0150   22.7510 H   0  0  0  0  0  0  0  0  0  0  0  0
    7.7425   -5.8113   23.1089 H   0  0  0  0  0  0  0  0  0  0  0  0
    6.9712   -4.3535   25.0064 H   0  0  0  0  0  0  0  0  0  0  0  0
    5.8652   -3.5078   23.9100 H   0  0  0  0  0  0  0  0  0  0  0  0
    1.7242   -5.5435   25.6552 H   0  0  0  0  0  0  0  0  0  0  0  0
   -0.0142   -3.7311   25.6030 H   0  0  0  0  0  0  0  0  0  0  0  0
    4.7966   -2.6223   25.9130 H   0  0  0  0  0  0  0  0  0  0  0  0
    4.0007   -4.7186   22.9489 H   0  0  0  0  0  0  0  0  0  0  0  0
    3.7706   -6.4714   23.3897 H   0  0  0  0  0  0  0  0  0  0  0  0
    4.6716   -6.2420   21.1373 H   0  0  0  0  0  0  0  0  0  0  0  0
    5.8550   -7.0406   22.2473 H   0  0  0  0  0  0  0  0  0  0  0  0
  1  2  1  0
  2  3  1  0
  3  4  1  0
  4  5  2  0
  4  6  1  0
  6  7  1  0
  7  8  1  0
  8  9  1  0
  9 10  1  0
 10 11  2  0
 10 12  2  0
 10 13  1  0
 13 14  4  0
 14 15  4  0
 15 16  4  0
 16 17  1  0
 16 18  4  0
 18 19  1  0
 18 20  4  0
  9 21  1  0
 21 22  1  0
 22  6  1  0
 20 13  4  0
  2 23  1  0
  2 24  1  0
  3 25  1  0
  3 26  1  0
  7 27  1  0
  7 28  1  0
  8 29  1  0
  8 30  1  0
 14 31  1  0
 15 32  1  0
 20 33  1  0
 21 34  1  0
 21 35  1  0
 22 36  1  0
 22 37  1  0
M  END
