LIG
     RDKit          3D

 32 33  0  0  0  0  0  0  0  0999 V2000
    5.6390   -4.4440   19.7150 R   0  0  0  0  0  1  0  0  0  0  0  0
    6.4860   -4.4020   20.5980 C   0  0  0  0  0  0  0  0  0  0  0  0
    7.7520   -3.6130   20.3900 N   0  0  0  0  0  0  0  0  0  0  0  0
    6.3490   -5.0580   21.7740 N   0  0  0  0  0  0  0  0  0  0  0  0
    7.1990   -4.8460   22.9470 C   0  0  0  0  0  0  0  0  0  0  0  0
    6.3630   -4.4520   24.1360 C   0  0  0  0  0  0  0  0  0  0  0  0
    5.3270   -5.4730   24.3670 N   0  0  0  0  0  0  0  0  0  0  0  0
    4.5810   -5.4590   25.8260 S   0  0  0  0  0  6  0  0  0  0  0  0
    3.9020   -6.7110   25.9450 O   0  0  0  0  0  0  0  0  0  0  0  0
    5.5710   -5.0920   26.7890 O   0  0  0  0  0  0  0  0  0  0  0  0
    3.3580   -4.1840   25.7860 C   0  0  0  0  0  0  0  0  0  0  0  0
    2.0160   -4.5200   25.6990 C   0  0  0  0  0  0  0  0  0  0  0  0
    1.0530   -3.5220   25.6690 C   0  0  0  0  0  0  0  0  0  0  0  0
    1.4200   -2.1920   25.7230 C   0  0  0  0  0  0  0  0  0  0  0  0
    0.4818   -1.1986   25.6881 F   0  0  0  0  0  0  0  0  0  0  0  0
    2.7600   -1.9000   25.8130 C   0  0  0  0  0  0  0  0  0  0  0  0
    3.1340   -0.6030   25.8670 F   0  0  0  0  0  0  0  0  0  0  0  0
    3.7480   -2.8580   25.8450 C   0  0  0  0  0  0  0  0  0  0  0  0
    4.4680   -5.6630   23.1870 C   0  0  0  0  0  0  0  0  0  0  0  0
    5.3280   -6.0740   22.0210 C   0  0  0  0  0  0  0  0  0  0  0  0
    8.5511   -4.1307   20.1851 H   0  0  0  0  0  0  0  0  0  0  0  0
    7.9272   -4.0191   22.7652 H   0  0  0  0  0  0  0  0  0  0  0  0
    7.7624   -5.7732   23.1881 H   0  0  0  0  0  0  0  0  0  0  0  0
    6.9671   -4.3258   25.0479 H   0  0  0  0  0  0  0  0  0  0  0  0
    5.8679   -3.5070   23.8851 H   0  0  0  0  0  0  0  0  0  0  0  0
    1.7732   -5.5657   25.6575 H   0  0  0  0  0  0  0  0  0  0  0  0
    0.0094   -3.7725   25.6032 H   0  0  0  0  0  0  0  0  0  0  0  0
    4.7815   -2.6172   25.9122 H   0  0  0  0  0  0  0  0  0  0  0  0
    3.9604   -4.7362   22.9068 H   0  0  0  0  0  0  0  0  0  0  0  0
    3.7048   -6.4339   23.3440 H   0  0  0  0  0  0  0  0  0  0  0  0
    5.8491   -7.0181   22.2541 H   0  0  0  0  0  0  0  0  0  0  0  0
    4.7147   -6.1975   21.1361 H   0  0  0  0  0  0  0  0  0  0  0  0
  1  2  1  0
  2  3  2  3
  2  4  1  0
  4  5  1  0
  5  6  1  0
  6  7  1  0
  7  8  1  0
  8  9  2  0
  8 10  2  0
  8 11  1  0
 11 12  4  0
 12 13  4  0
 13 14  4  0
 14 15  1  0
 14 16  4  0
 16 17  1  0
 16 18  4  0
  7 19  1  0
 19 20  1  0
 20  4  1  0
 18 11  4  0
  3 21  1  0
  5 22  1  0
  5 23  1  0
  6 24  1  0
  6 25  1  0
 12 26  1  0
 13 27  1  0
 18 28  1  0
 19 29  1  0
 19 30  1  0
 20 31  1  0
 20 32  1  0
M  END
