LIG
     RDKit          3D

 44 47  0  0  0  0  0  0  0  0999 V2000
    7.0362   -3.3630   23.9800 O   0  0  0  0  0  0  0  0  0  0  0  0
    8.0090   -3.5280   24.6940 C   0  0  0  0  0  0  0  0  0  0  0  0
    6.7811   -3.3047   23.8695 C   0  0  0  0  0  0  0  0  0  0  0  0
    6.0300   -4.5389   23.7284 N   0  0  0  0  0  0  0  0  0  0  0  0
    6.0918   -5.2226   22.5629 N   0  0  0  0  0  0  0  0  0  0  0  0
    5.2556   -6.2531   22.6556 N   0  0  0  0  0  0  0  0  0  0  0  0
    4.6582   -6.2063   23.8893 C   0  0  0  0  0  0  0  0  0  0  0  0
    3.6937   -7.0440   24.4759 C   0  0  0  0  0  0  0  0  0  0  0  0
    3.2493   -6.7501   25.7736 C   0  0  0  0  0  0  0  0  0  0  0  0
    3.7579   -5.6487   26.4725 C   0  0  0  0  0  0  0  0  0  0  0  0
    4.7251   -4.8061   25.9035 C   0  0  0  0  0  0  0  0  0  0  0  0
    5.1436   -5.1114   24.6029 C   0  0  0  0  0  0  0  0  0  0  0  0
    9.2640   -3.0210   24.2000 N   0  0  0  0  0  0  0  0  0  0  0  0
    9.1610   -1.7420   23.3800 C   0  0  0  0  0  0  0  0  0  0  0  0
   10.5550   -1.1370   23.4290 C   0  0  0  0  0  0  0  0  0  0  0  0
   10.8590   -0.0900   24.2910 C   0  0  0  0  0  0  0  0  0  0  0  0
   12.1480    0.4150   24.3170 C   0  0  0  0  0  0  0  0  0  0  0  0
   13.1300   -0.1380   23.5120 C   0  0  0  0  0  0  0  0  0  0  0  0
   14.3837    0.4437   23.5403 O   0  0  0  0  0  0  0  0  0  0  0  0
   15.4314   -0.3707   23.8995 C   0  0  0  0  0  0  0  0  0  0  0  0
   16.6343   -0.2090   23.2132 C   0  0  0  0  0  0  0  0  0  0  0  0
   17.7326   -0.9923   23.5670 C   0  0  0  0  0  0  0  0  0  0  0  0
   17.5878   -1.8996   24.6100 C   0  0  0  0  0  0  0  0  0  0  0  0
   16.4423   -2.0643   25.3145 N   0  0  0  0  0  0  0  0  0  0  0  0
   15.3893   -1.2928   24.9449 C   0  0  0  0  0  0  0  0  0  0  0  0
   12.8240   -1.1930   22.6610 C   0  0  0  0  0  0  0  0  0  0  0  0
   13.7561   -1.7322   21.8632 F   0  0  0  0  0  0  0  0  0  0  0  0
   11.5360   -1.6880   22.6290 C   0  0  0  0  0  0  0  0  0  0  0  0
    6.9934   -2.9410   22.8579 H   0  0  0  0  0  0  0  0  0  0  0  0
    6.1482   -2.5590   24.3697 H   0  0  0  0  0  0  0  0  0  0  0  0
    3.3003   -7.9019   23.9327 H   0  0  0  0  0  0  0  0  0  0  0  0
    2.5009   -7.3886   26.2422 H   0  0  0  0  0  0  0  0  0  0  0  0
    3.4006   -5.4392   27.4802 H   0  0  0  0  0  0  0  0  0  0  0  0
    5.1280   -3.9616   26.4586 H   0  0  0  0  0  0  0  0  0  0  0  0
   10.0011   -3.5330   24.2506 H   0  0  0  0  0  0  0  0  0  0  0  0
    8.8623   -2.0174   22.3978 H   0  0  0  0  0  0  0  0  0  0  0  0
    8.4550   -1.1054   23.8518 H   0  0  0  0  0  0  0  0  0  0  0  0
   10.1007    0.3374   24.9440 H   0  0  0  0  0  0  0  0  0  0  0  0
   12.3937    1.2520   24.9851 H   0  0  0  0  0  0  0  0  0  0  0  0
   16.7133    0.5137   22.4018 H   0  0  0  0  0  0  0  0  0  0  0  0
   18.6782   -0.8989   23.0395 H   0  0  0  0  0  0  0  0  0  0  0  0
   18.4158   -2.5346   24.9194 H   0  0  0  0  0  0  0  0  0  0  0  0
   14.4934   -1.4402   25.5424 H   0  0  0  0  0  0  0  0  0  0  0  0
   11.3168   -2.5253   21.9489 H   0  0  0  0  0  0  0  0  0  0  0  0
  1  2  2  0
  2  3  1  0
  3  4  1  0
  4  5  4  0
  5  6  4  0
  6  7  4  0
  7  8  4  0
  8  9  4  0
  9 10  4  0
 10 11  4  0
 11 12  4  0
  2 13  1  0
 13 14  1  0
 14 15  1  0
 15 16  4  0
 16 17  4  0
 17 18  4  0
 18 19  1  0
 19 20  1  0
 20 21  4  0
 21 22  4  0
 22 23  4  0
 23 24  4  0
 24 25  4  0
 18 26  4  0
 26 27  1  0
 26 28  4  0
 12  4  4  0
 28 15  4  0
 12  7  4  0
 25 20  4  0
  3 29  1  0
  3 30  1  0
  8 31  1  0
  9 32  1  0
 10 33  1  0
 11 34  1  0
 13 35  1  0
 14 36  1  0
 14 37  1  0
 16 38  1  0
 17 39  1  0
 21 40  1  0
 22 41  1  0
 23 42  1  0
 25 43  1  0
 28 44  1  0
M  END
