LIG
     RDKit          3D

 35 36  0  0  0  0  0  0  0  0999 V2000
    5.8698    0.9076   -0.7676 C   0  0  0  0  0  0  0  0  0  0  0  0
    4.7603    0.1581   -0.7902 C   0  0  0  0  0  0  0  0  0  0  0  0
    3.4565    0.7623   -1.1719 C   0  0  0  0  0  0  0  0  0  0  0  0
    3.4251    1.7436   -1.9114 O   0  0  0  0  0  0  0  0  0  0  0  0
    2.3102    0.1482   -0.6793 N   0  0  0  0  0  0  0  0  0  0  0  0
    1.0380    0.7928   -1.0239 C   0  0  0  0  0  0  0  0  0  0  0  0
   -0.1608   -0.1582   -0.9163 C   0  0  0  0  0  0  0  0  0  0  0  0
   -0.1988   -0.7888    0.4446 N   0  0  0  0  0  0  0  0  0  0  0  0
   -1.5911   -1.7256    0.7630 S   0  0  0  0  0  6  0  0  0  0  0  0
   -1.4838   -2.2505    2.1065 O   0  0  0  0  0  0  0  0  0  0  0  0
   -1.7972   -2.5959   -0.3742 O   0  0  0  0  0  0  0  0  0  0  0  0
   -2.8828   -0.5089    0.7847 C   0  0  0  0  0  0  0  0  0  0  0  0
   -2.8772    0.4681    1.7903 C   0  0  0  0  0  0  0  0  0  0  0  0
   -3.8905    1.4277    1.8220 C   0  0  0  0  0  0  0  0  0  0  0  0
   -4.8942    1.3971    0.8571 C   0  0  0  0  0  0  0  0  0  0  0  0
   -5.8630    2.3219    0.8900 F   0  0  0  0  0  0  0  0  0  0  0  0
   -4.8951    0.4179   -0.1329 C   0  0  0  0  0  0  0  0  0  0  0  0
   -5.8654    0.3973   -1.0565 F   0  0  0  0  0  0  0  0  0  0  0  0
   -3.8939   -0.5453   -0.1789 C   0  0  0  0  0  0  0  0  0  0  0  0
    1.0709   -1.5500    0.6814 C   0  0  0  0  0  0  0  0  0  0  0  0
    2.2837   -0.6130    0.5795 C   0  0  0  0  0  0  0  0  0  0  0  0
    5.8419    1.9689   -1.0016 H   0  0  0  0  0  0  0  0  0  0  0  0
    6.8329    0.4718   -0.5255 H   0  0  0  0  0  0  0  0  0  0  0  0
    4.8076   -0.9034   -0.5928 H   0  0  0  0  0  0  0  0  0  0  0  0
    0.9108    1.6407   -0.3390 H   0  0  0  0  0  0  0  0  0  0  0  0
    1.0853    1.1949   -2.0422 H   0  0  0  0  0  0  0  0  0  0  0  0
   -1.0744    0.4157   -1.0959 H   0  0  0  0  0  0  0  0  0  0  0  0
   -0.0814   -0.9393   -1.6818 H   0  0  0  0  0  0  0  0  0  0  0  0
   -2.0923    0.4792    2.5447 H   0  0  0  0  0  0  0  0  0  0  0  0
   -3.9077    2.1943    2.5911 H   0  0  0  0  0  0  0  0  0  0  0  0
   -3.9172   -1.3042   -0.9556 H   0  0  0  0  0  0  0  0  0  0  0  0
    1.0629   -1.9937    1.6823 H   0  0  0  0  0  0  0  0  0  0  0  0
    1.1586   -2.3549   -0.0584 H   0  0  0  0  0  0  0  0  0  0  0  0
    2.2580    0.1246    1.3915 H   0  0  0  0  0  0  0  0  0  0  0  0
    3.1944   -1.2012    0.7079 H   0  0  0  0  0  0  0  0  0  0  0  0
  1  2  2  3
  2  3  1  0
  3  4  2  0
  3  5  1  0
  5  6  1  0
  6  7  1  0
  7  8  1  0
  8  9  1  0
  9 10  2  0
  9 11  2  0
  9 12  1  0
 12 13  2  0
 13 14  1  0
 14 15  2  0
 15 16  1  0
 15 17  1  0
 17 18  1  0
 17 19  2  0
  8 20  1  0
 20 21  1  0
 21  5  1  0
 19 12  1  0
  1 22  1  0
  1 23  1  0
  2 24  1  0
  6 25  1  0
  6 26  1  0
  7 27  1  0
  7 28  1  0
 13 29  1  0
 14 30  1  0
 19 31  1  0
 20 32  1  0
 20 33  1  0
 21 34  1  0
 21 35  1  0
M  END
