LIG
     RDKit          3D

 49 52  0  0  0  0  0  0  0  0999 V2000
    6.1056   -3.4242   23.0914 C   0  0  0  0  0  0  0  0  0  0  0  0
    6.7189   -2.9277   24.3929 C   0  0  0  0  0  0  0  0  0  0  0  0
    8.0090   -3.5280   24.6940 N   0  0  0  0  0  0  0  0  0  0  0  0
    6.8071   -2.7743   24.3632 C   0  0  0  0  0  0  0  0  0  0  0  0
    6.3118   -1.9054   25.4947 C   0  0  0  0  0  0  0  0  0  0  0  0
    5.0584   -2.1360   26.0742 C   0  0  0  0  0  0  0  0  0  0  0  0
    4.6045   -1.3261   27.1132 C   0  0  0  0  0  0  0  0  0  0  0  0
    5.3973   -0.2759   27.5813 C   0  0  0  0  0  0  0  0  0  0  0  0
    6.6571   -0.0114   27.0207 C   0  0  0  0  0  0  0  0  0  0  0  0
    7.4919    1.0997   27.5114 C   0  0  0  0  0  0  0  0  0  0  0  0
    8.0792    2.0132   26.6273 C   0  0  0  0  0  0  0  0  0  0  0  0
    8.8534    3.0450   27.1362 C   0  0  0  0  0  0  0  0  0  0  0  0
    9.0838    3.2336   28.4517 N   0  0  0  0  0  0  0  0  0  0  0  0
    8.5199    2.3438   29.2931 C   0  0  0  0  0  0  0  0  0  0  0  0
    7.7300    1.2816   28.8793 C   0  0  0  0  0  0  0  0  0  0  0  0
    7.0946   -0.8393   25.9719 C   0  0  0  0  0  0  0  0  0  0  0  0
    9.2640   -3.0210   24.2000 C   0  0  0  0  0  0  0  0  0  0  0  0
   10.3102   -3.5548   24.4804 O   0  0  0  0  0  0  0  0  0  0  0  0
    9.1610   -1.7420   23.3800 C   0  0  0  0  0  0  0  0  0  0  0  0
   10.5550   -1.1370   23.4290 C   0  0  0  0  0  0  0  0  0  0  0  0
   11.4930   -1.5195   22.6376 N   0  0  0  0  0  0  0  0  0  0  0  0
    9.7364   -2.0631   22.8628 O   0  0  0  0  0  0  0  0  0  0  0  0
   10.9647   -1.4949   22.9858 C   0  0  0  0  0  0  0  0  0  0  0  0
   11.5360   -1.6880   22.6290 C   0  0  0  0  0  0  0  0  0  0  0  0
   12.8240   -1.1930   22.6610 C   0  0  0  0  0  0  0  0  0  0  0  0
   13.1300   -0.1380   23.5120 C   0  0  0  0  0  0  0  0  0  0  0  0
   12.1480    0.4150   24.3170 C   0  0  0  0  0  0  0  0  0  0  0  0
   10.8590   -0.0900   24.2910 C   0  0  0  0  0  0  0  0  0  0  0  0
    5.1968   -2.8575   22.8653 H   0  0  0  0  0  0  0  0  0  0  0  0
    6.7944   -3.3178   22.2485 H   0  0  0  0  0  0  0  0  0  0  0  0
    5.8258   -4.4787   23.1570 H   0  0  0  0  0  0  0  0  0  0  0  0
    6.8260   -1.8392   24.3487 H   0  0  0  0  0  0  0  0  0  0  0  0
    6.0419   -3.1341   25.2295 H   0  0  0  0  0  0  0  0  0  0  0  0
    6.0424   -3.5030   24.0673 H   0  0  0  0  0  0  0  0  0  0  0  0
    6.9613   -2.1362   23.4851 H   0  0  0  0  0  0  0  0  0  0  0  0
    4.4262   -2.9473   25.7210 H   0  0  0  0  0  0  0  0  0  0  0  0
    3.6292   -1.5069   27.5579 H   0  0  0  0  0  0  0  0  0  0  0  0
    5.0125    0.3513   28.3830 H   0  0  0  0  0  0  0  0  0  0  0  0
    7.9332    1.9336   25.5546 H   0  0  0  0  0  0  0  0  0  0  0  0
    9.3209    3.7691   26.4751 H   0  0  0  0  0  0  0  0  0  0  0  0
    8.7269    2.5079   30.3466 H   0  0  0  0  0  0  0  0  0  0  0  0
    7.3211    0.6001   29.6179 H   0  0  0  0  0  0  0  0  0  0  0  0
    8.0702   -0.6599   25.5198 H   0  0  0  0  0  0  0  0  0  0  0  0
    8.4762   -1.0858   23.8528 H   0  0  0  0  0  0  0  0  0  0  0  0
    8.9209   -1.9445   22.3723 H   0  0  0  0  0  0  0  0  0  0  0  0
   11.3104   -2.7458   22.7475 H   0  0  0  0  0  0  0  0  0  0  0  0
   13.5923   -1.6240   22.0343 H   0  0  0  0  0  0  0  0  0  0  0  0
   14.1451    0.2473   23.5503 H   0  0  0  0  0  0  0  0  0  0  0  0
   12.4054    1.2496   24.9938 H   0  0  0  0  0  0  0  0  0  0  0  0
  1  2  1  0
  2  3  1  0
  3  4  1  0
  4  5  1  0
  5  6  4  0
  6  7  4  0
  7  8  4  0
  8  9  4  0
  9 10  1  0
 10 11  4  0
 11 12  4  0
 12 13  4  0
 13 14  4  0
 14 15  4  0
  9 16  4  0
  3 17  1  0
 17 18  2  0
 17 19  1  0
 19 20  1  0
 20 21  4  0
 21 22  4  0
 22 23  4  0
 23 24  4  0
 24 25  4  0
 25 26  4  0
 26 27  4  0
 27 28  4  0
 16  5  4  0
 28 20  4  0
 15 10  4  0
 28 23  4  0
  1 29  1  0
  1 30  1  0
  1 31  1  0
  2 32  1  0
  2 33  1  0
  4 34  1  0
  4 35  1  0
  6 36  1  0
  7 37  1  0
  8 38  1  0
 11 39  1  0
 12 40  1  0
 14 41  1  0
 15 42  1  0
 16 43  1  0
 19 44  1  0
 19 45  1  0
 24 46  1  0
 25 47  1  0
 26 48  1  0
 27 49  1  0
M  END
